@<TRIPOS>MOLECULE
UNL
   18    18     1     0     0
SMALL
bcc


@<TRIPOS>ATOM
      1 C            0.4880     1.3770     0.2290 c3         1 UNL      -0.076400
      2 C1           1.4370     0.2660    -0.2290 c3         1 UNL      -0.076400
      3 C2          -0.9490     1.1110    -0.2290 c3         1 UNL      -0.076400
      4 C3           0.9490    -1.1110     0.2290 c3         1 UNL      -0.076400
      5 C4          -1.4370    -0.2660     0.2290 c3         1 UNL      -0.076400
      6 C5          -0.4880    -1.3770    -0.2290 c3         1 UNL      -0.076400
      7 H            0.8320     2.3490    -0.1440 hc         1 UNL       0.038200
      8 H1           0.5100     1.4390     1.3270 hc         1 UNL       0.038200
      9 H2           1.5010     0.2780    -1.3270 hc         1 UNL       0.038200
     10 H3           2.4500     0.4540     0.1440 hc         1 UNL       0.038200
     11 H4          -0.9910     1.1610    -1.3270 hc         1 UNL       0.038200
     12 H5          -1.6180     1.8950     0.1440 hc         1 UNL       0.038200
     13 H6           0.9910    -1.1610     1.3270 hc         1 UNL       0.038200
     14 H7           1.6180    -1.8950    -0.1440 hc         1 UNL       0.038200
     15 H8          -1.5010    -0.2780     1.3270 hc         1 UNL       0.038200
     16 H9          -2.4500    -0.4540    -0.1440 hc         1 UNL       0.038200
     17 H10         -0.8320    -2.3490     0.1440 hc         1 UNL       0.038200
     18 H11         -0.5100    -1.4390    -1.3270 hc         1 UNL       0.038200
@<TRIPOS>BOND
     1     1     2 1   
     2     1     3 1   
     3     1     7 1   
     4     1     8 1   
     5     2     4 1   
     6     2     9 1   
     7     2    10 1   
     8     3     5 1   
     9     3    11 1   
    10     3    12 1   
    11     4     6 1   
    12     4    13 1   
    13     4    14 1   
    14     5     6 1   
    15     5    15 1   
    16     5    16 1   
    17     6    17 1   
    18     6    18 1   
@<TRIPOS>SUBSTRUCTURE
     1 UNL         1 TEMP              0 ****  ****    0 ROOT
