@<TRIPOS>MOLECULE
UNL
   10    10     1     0     0
SMALL
bcc


@<TRIPOS>ATOM
      1 N            0.0000     1.4020     0.0000 nb         1 UNL      -0.628000
      2 N1          -0.0000    -1.4020    -0.0000 nb         1 UNL      -0.628000
      3 C            1.1300     0.6960     0.0000 ca         1 UNL       0.279900
      4 C1           1.1300    -0.6960    -0.0000 ca         1 UNL       0.279900
      5 C2          -1.1300     0.6960     0.0000 ca         1 UNL       0.279900
      6 C3          -1.1300    -0.6960    -0.0000 ca         1 UNL       0.279900
      7 H            2.0620     1.2550     0.0000 h4         1 UNL       0.034100
      8 H1           2.0620    -1.2550     0.0000 h4         1 UNL       0.034100
      9 H2          -2.0620     1.2550    -0.0000 h4         1 UNL       0.034100
     10 H3          -2.0620    -1.2550    -0.0000 h4         1 UNL       0.034100
@<TRIPOS>BOND
     1     1     3 ar  
     2     1     5 ar  
     3     2     4 ar  
     4     2     6 ar  
     5     3     4 ar  
     6     3     7 1   
     7     4     8 1   
     8     5     6 ar  
     9     5     9 1   
    10     6    10 1   
@<TRIPOS>SUBSTRUCTURE
     1 UNL         1 TEMP              0 ****  ****    0 ROOT
